data/dss_files/IEEE13Nodeckt.dss
Set DefaultBaseFreq=60

!!! Equivalente do alimentador de MT (BGE09)
New Circuit.BGE09 Bus1=SourceBus.1.2.3.4 basekV=11.4 pu=1.035 Mvasc3=48.887 Mvasc1=9.557 x1r1=2.082 x0r0=2.328 ! Nível de curto-circuito ajustado conforme estudo de proteção/seletividade feito pela NEC (NE00-001-00-MC-004_R0 - CURTO-CIRCUITO.pdf)

!!! Transformador de distribuição
New Transformer._oh_566670641_566670640_ Windings=2 XHL=3.33592 %NoLoadLoss=0.279333 
 ~ Wdg=1 Bus=SourceBus.1.2.3 Conn=delta kV=11.4 kVA=150 Tap=1 %R=0.563667 
 ~ Wdg=2 Bus=650_sec.1.2.3.4 kV=0.22 kVA=150 Tap=1 %R=0.563667 

!!! Dados dos cabos condutores
New WireData.ca-120mm2-xlpe-1kv Rdc=0.253 Runits=km GMRac=0.52890 GMRunits=cm Radunits=cm NormAmps=229 Diam=1.29 
New WireData.ca-25mm2-xlpe-1kv Rdc=1.2000 Runits=km GMRac=0.24272 GMRunits=cm Radunits=cm NormAmps=80 Diam=0.592 
New WireData.ca-16mm2-xlpe-1kv Rdc=1.9100 Runits=km GMRac=0.19270 GMRunits=cm Radunits=cm NormAmps=59 Diam=0.470 
New WireData.ca-70mm2-1kv Rdc=0.443 Runits=km GMRac=0.39975 GMRunits=cm Radunits=cm NormAmps=157 Diam=0.975 
New WireData.ca-25mm2-1kv Rdc=1.200 Runits=km GMRac=0.24272 GMRunits=cm Radunits=cm NormAmps=80 Diam=0.592 
New WireData.ca-16mm2-1kv Rdc=1.910 Runits=km GMRac=0.19270 GMRunits=cm Radunits=cm NormAmps=59 Diam=0.47 
New WireData.ca-2awg-1kv Rdc=0.8595 Runits=km GMRac=0.30381 GMRunits=cm Radunits=cm NormAmps=95 Diam=0.741 

!!! Dados de geometria das linhas
New LineGeometry.multiplex_120mm2_abcn Nconds=4 
 ~ Cond=1 Wire=ca-120mm2-xlpe-1kv X=0 H=901.427 Units=cm 
 ~ Cond=2 Wire=ca-120mm2-xlpe-1kv X=1.41211 H=900.203 Units=cm 
 ~ Cond=3 Wire=ca-120mm2-xlpe-1kv X=0.401879 H=898.631 Units=cm 
 ~ Cond=4 Wire=ca-70mm2-1kv X=0 H=900 Units=cm 
 ~  Reduce=n 
New LineGeometry.ramal_25mm2_abcn Nconds=4 
 ~ Cond=1 Wire=ca-25mm2-xlpe-1kv X=0 H=900.774 Units=cm 
 ~ Cond=2 Wire=ca-25mm2-xlpe-1kv X=0.749679 H=900.191 Units=cm 
 ~ Cond=3 Wire=ca-25mm2-xlpe-1kv X=0.370411 H=899.321 Units=cm 
 ~ Cond=4 Wire=ca-25mm2-1kv X=0 H=900 Units=cm 
 ~  Reduce=n 
New LineGeometry.ramal_16mm2_abcn Nconds=4 
 ~ Cond=1 Wire=ca-16mm2-xlpe-1kv X=0 H=900.651 Units=cm 
 ~ Cond=2 Wire=ca-16mm2-xlpe-1kv X=0.639346 H=900.125 Units=cm 
 ~ Cond=3 Wire=ca-16mm2-xlpe-1kv X=0.245349 H=899.397 Units=cm 
 ~ Cond=4 Wire=ca-16mm2-1kv X=0 H=900 Units=cm 
 ~  Reduce=n 
New LineGeometry.ramal_16mm2_abn Nconds=3 Nphases=2 
 ~ Cond=1 Wire=ca-16mm2-xlpe-1kv X=0 H=900.651 Units=cm 
 ~ Cond=2 Wire=ca-16mm2-xlpe-1kv X=0.639346 H=900.125 Units=cm 
 ~ Cond=3 Wire=ca-16mm2-1kv X=0 H=900 Units=cm 
 ~  Reduce=n 
New LineGeometry.ramal_16mm2_bcn Nconds=3 Nphases=2 
 ~ Cond=1 Wire=ca-16mm2-xlpe-1kv X=0.639346 H=900.125 Units=cm 
 ~ Cond=2 Wire=ca-16mm2-xlpe-1kv X=0.245349 H=899.397 Units=cm 
 ~ Cond=3 Wire=ca-16mm2-1kv X=0 H=900 Units=cm 
 ~  Reduce=n 
New LineGeometry.tradicional_2awg_abcn Nconds=4 
 ~ Cond=1 Wire=ca-2awg-1kv X=0 H=860 Units=cm 
 ~ Cond=2 Wire=ca-2awg-1kv X=0 H=840 Units=cm 
 ~ Cond=3 Wire=ca-2awg-1kv X=0 H=820 Units=cm 
 ~ Cond=4 Wire=ca-2awg-1kv X=0 H=880 Units=cm 
 ~  Reduce=n 

!!! Rede secundária
New Line._sec_650632 Bus1=650_sec.1.2.3.4 Bus2=632_sec.1.2.3.4 Length=0.0381091 Geometry=multiplex_120mm2_abcn Units=km 
New Line._sec_632645 Bus1=632_sec.1.2.3.4 Bus2=645_sec.1.2.3.4 Length=0.0345699 Geometry=multiplex_120mm2_abcn Units=km
New Line._sec_645646 Bus1=645_sec.1.2.3.4 Bus2=646_sec.1.2.3.4 Length=0.0298908 Geometry=multiplex_120mm2_abcn Units=km
New Line._sec_632633 Bus1=632_sec.1.2.3.4 Bus2=633_sec.1.2.3.4 Length=0.0410325 Geometry=multiplex_120mm2_abcn Units=km
New Line._sec_632670 Bus1=632_sec.1.2.3.4 Bus2=670_sec.1.2.3.4 Length=0.0280015 Geometry=multiplex_120mm2_abcn Units=km
New Line._sec_670671 Bus1=670_sec.1.2.3.4 Bus2=671_sec.1.2.3.4 Length=0.0406474 Geometry=multiplex_120mm2_abcn Units=km
New Line._sec_671984 Bus1=671_sec.1.2.3.4 Bus2=684_sec.1.2.3.4 Length=0.0229642 Geometry=multiplex_120mm2_abcn Units=km
New Line._sec_684652 Bus1=684_sec.1.2.3.4 Bus2=652_sec.1.2.3.4 Length=0.0180142 Geometry=multiplex_120mm2_abcn Units=km
New Line._sec_671692 Bus1=671_sec.1.2.3.4 Bus2=692_sec.1.2.3.4 Length=0.0209642 Geometry=multiplex_120mm2_abcn Units=km 
New Line._sec_692975 Bus1=692_sec.1.2.3.4 Bus2=675_sec.1.2.3.4 Length=0.0319177 Geometry=multiplex_120mm2_abcn Units=km 
New Line._sec_671680 Bus1=671_sec.1.2.3.4 Bus2=680_sec.1.2.3.4 Length=0.0241134 Geometry=multiplex_120mm2_abcn Units=km 


!!! Ramais de ligação
New Line._tap_171579791 Bus1=650_sec.1.2.3.4 Bus2=bus_650001.1.2.3.4 Length=0.0144934 Geometry=ramal_16mm2_abcn Units=km
New Line._tap_171579827 Bus1=650_sec.1.2.3.4 Bus2=bus_650002.1.2.3.4 Length=0.0153098 Geometry=ramal_16mm2_abcn Units=km
New Line._tap_171579828 Bus1=650_sec.1.2.3.4 Bus2=bus_650003.1.2.3.4 Length=0.0103098 Geometry=ramal_16mm2_abcn Units=km 
New Line._tap_171579829 Bus1=650_sec.1.2.3.4 Bus2=bus_650004.1.2.3.4 Length=0.0163098 Geometry=ramal_16mm2_abcn Units=km

New Line._tap_171579726 Bus1=632_sec.1.2.3.4 Bus2=bus_632001.1.2.3.4 Length=0.0106785 Geometry=ramal_25mm2_abcn Units=km 
New Line._tap_171579728 Bus1=632_sec.1.2.3.4 Bus2=bus_632002.1.2.3.4 Length=0.010876 Geometry=ramal_25mm2_abcn Units=km 
New Line._tap_171579730 Bus1=632_sec.1.2.3.4 Bus2=bus_632003.1.2.3.4 Length=0.0238047 Geometry=ramal_25mm2_abcn Units=km

New Line._tap_171579720 Bus1=633_sec.1.2.3.4 Bus2=bus_633001.1.2.3.4 Length=0.00764268 Geometry=ramal_25mm2_abcn Units=km 
New Line._tap_171579722 Bus1=633_sec.1.2.3.4 Bus2=bus_633002.1.2.3.4 Length=0.00667061 Geometry=ramal_25mm2_abcn Units=km 
New Line._tap_171579724 Bus1=633_sec.1.2.3.4 Bus2=bus_633003.1.2.3.4 Length=0.0112426 Geometry=ramal_25mm2_abcn Units=km

New Line._tap_171579696 Bus1=645_sec.1.2.3.4 Bus2=bus_645001.1.2.3.4 Length=0.0115084 Geometry=ramal_25mm2_abcn Units=km 
New Line._tap_171579697 Bus1=645_sec.1.2.3.4 Bus2=bus_645002.1.2.3.4 Length=0.0115084 Geometry=ramal_25mm2_abcn Units=km 
New Line._tap_171579698 Bus1=645_sec.1.2.3.4 Bus2=bus_645003.1.2.3.4 Length=0.0115084 Geometry=ramal_25mm2_abcn Units=km

New Line._tap_171579808 Bus1=646_sec.1.2.3.4 Bus2=bus_646001.1.2.3.4 Length=0.010247 Geometry=ramal_16mm2_abcn Units=km
New Line._tap_19479078  Bus1=646_sec.1.2.3.4 Bus2=bus_646002.1.2.3.4 Length=0.01062 Geometry=ramal_16mm2_abcn Units=km  
New Line._tap_171579699 Bus1=646_sec.1.2.3.4 Bus2=bus_646003.1.2.3.4 Length=0.0115084 Geometry=ramal_25mm2_abcn Units=km

New Line._tap_171579799 Bus1=670_sec.1.2.3.4 Bus2=bus_670001.1.2.3.4 Length=0.00917257 Geometry=ramal_25mm2_abcn Units=km
New Line._tap_171579708 Bus1=670_sec.1.2.3.4 Bus2=bus_670002.2.3.4 Length=0.00591219 Geometry=ramal_16mm2_bcn Units=km
New Line._tap_171579819 Bus1=670_sec.1.2.3.4 Bus2=bus_670003.1.2.4 Length=0.00627548 Geometry=ramal_16mm2_abn Units=km

New Line._tap_171579704 Bus1=671_sec.1.2.3.4 Bus2=bus_671001.1.2.3.4 Length=0.0193596 Geometry=ramal_25mm2_abcn Units=km
New Line._tap_171579716 Bus1=671_sec.1.2.3.4 Bus2=bus_671002.1.2.3.4 Length=0.0134251 Geometry=ramal_25mm2_abcn Units=km
New Line._tap_565180591 Bus1=671_sec.1.2.3.4 Bus2=bus_671003.1.2.3.4 Length=0.012408 Geometry=ramal_16mm2_abcn Units=km 

New Line._tap_19479050 Bus1=692_sec.1.2.3.4 Bus2=bus_692001.1.2.3.4 Length=0.00794142 Geometry=ramal_25mm2_abcn Units=km 
New Line._tap_19479077 Bus1=692_sec.1.2.3.4 Bus2=bus_692002.1.2.3.4 Length=0.00815819 Geometry=ramal_16mm2_abcn Units=km
New Line._tap_565180588 Bus1=692_sec.1.2.3.4 Bus2=bus_692003.1.2.3.4 Length=0.0275409 Geometry=ramal_16mm2_abcn Units=km 

New Line._tap_19479051 Bus1=680_sec.1.2.3.4 Bus2=bus_680001.1.2.3.4 Length=0.00794142 Geometry=ramal_25mm2_abcn Units=km 
New Line._tap_19479079 Bus1=680_sec.1.2.3.4 Bus2=bus_680002.1.2.3.4 Length=0.00815819 Geometry=ramal_16mm2_abcn Units=km
New Line._tap_565180592 Bus1=680_sec.1.2.3.4 Bus2=bus_680003.1.2.3.4 Length=0.012408 Geometry=ramal_16mm2_abcn Units=km 

New Line._tap_171579710 Bus1=684_sec.1.2.3.4 Bus2=bus_684001.1.2.3.4 Length=0.0110049 Geometry=ramal_25mm2_abcn Units=km 
New Line._tap_171579712 Bus1=684_sec.1.2.3.4 Bus2=bus_684002.1.2.3.4 Length=0.0134701 Geometry=ramal_25mm2_abcn Units=km
New Line._tap_171579718 Bus1=684_sec.1.2.3.4 Bus2=bus_684003.1.2.3.4 Length=0.0109413 Geometry=ramal_25mm2_abcn Units=km 

New Line._tap_171579702 Bus1=611_sec.1.2.3.4 Bus2=bus_611001.1.2.3.4 Length=0.00889182 Geometry=ramal_25mm2_abcn Units=km 
New Line._tap_19478922  Bus1=611_sec.2.3.4 Bus2=bus_611002.1.2.3.4 Length=0.005 Geometry=ramal_16mm2_bcn Units=km
New Line._tap_171579714 Bus1=611_sec.1.2.3.4 Bus2=bus_611003.1.2.3.4 Length=0.0141231 Geometry=ramal_25mm2_abcn Units=km 

New Line._tap_171579719 Bus1=652_sec.1.2.3.4 Bus2=bus_652001.1.2.3.4 Length=0.0109413 Geometry=ramal_25mm2_abcn Units=km 
New Line._tap_171579732 Bus1=652_sec.1.2.3.4 Bus2=bus_652002.1.2.3.4 Length=0.0125825 Geometry=ramal_25mm2_abcn Units=km 
New Line._tap_171579713 Bus1=652_sec.1.2.3.4 Bus2=bus_652003.1.2.3.4 Length=0.0134701 Geometry=ramal_25mm2_abcn Units=km

New Line._tap_171579734 Bus1=675_sec.1.2.3.4 Bus2=bus_675001.1.2.3.4 Length=0.00550045 Geometry=ramal_25mm2_abcn Units=km 
New Line._tap_171579736 Bus1=675_sec.1.2.3.4 Bus2=bus_675002.1.2.3.4 Length=0.0089716 Geometry=ramal_25mm2_abcn Units=km 
New Line._tap_171579738 Bus1=675_sec.1.2.3.4 Bus2=bus_675003.1.2.3.4 Length=0.0110789 Geometry=ramal_16mm2_abcn Units=km 

!!!! Impedâncias de aterramento
New Reactor.gnd_tr__oh_566670641 Phases=1 Bus1=650_sec.4 R=15 X=0

New Reactor.gnd_uc__b1_0035581263 Phases=1 Bus1=bus_650001.4 R=15 X=0 
New Reactor.gnd_uc__b1_4001138436 Phases=1 Bus1=bus_650002.4 R=15 X=0 
New Reactor.gnd_uc__b1_0035475900 Phases=1 Bus1=bus_650003.4 R=15 X=0 
New Reactor.gnd_uc__b1_0036118184 Phases=1 Bus1=bus_650004.4 R=15 X=0

New Reactor.gnd_uc__b1_0035370840 Phases=1 Bus1=bus_632001.4 R=15 X=0 
New Reactor.gnd_uc__b1_0035371129 Phases=1 Bus1=bus_632002.4 R=15 X=0 
New Reactor.gnd_uc__b1_0035366079 Phases=1 Bus1=bus_632003.4 R=15 X=0

New Reactor.gnd_uc__b1_0035366036 Phases=1 Bus1=bus_633001.4 R=15 X=0 
New Reactor.gnd_uc__b1_0037195921 Phases=1 Bus1=bus_633002.4 R=15 X=0 
New Reactor.gnd_uc__b1_0037195922 Phases=1 Bus1=bus_633003.4 R=15 X=0

New Reactor.gnd_uc__b1_0041034830 Phases=1 Bus1=bus_645001.4 R=15 X=0 
New Reactor.gnd_uc__b3_0042149282 Phases=1 Bus1=bus_645002.4 R=15 X=0
New Reactor.gnd_uc__b1_0035370203 Phases=1 Bus1=bus_645003.4 R=15 X=0 

New Reactor.gnd_uc__b1_0041815386 Phases=1 Bus1=bus_646001.4 R=15 X=0
New Reactor.gnd_uc__b1_4000346865 Phases=1 Bus1=bus_646002.4 R=15 X=0
New Reactor.gnd_uc__b1_0035523484 Phases=1 Bus1=bus_646003.4 R=15 X=0 

New Reactor.gnd_uc__b1_0041325796 Phases=1 Bus1=bus_670001.4 R=15 X=0
New Reactor.gnd_uc__b1_4000416233 Phases=1 Bus1=bus_670002.4 R=15 X=0
New Reactor.gnd_uc__b1_0041828690 Phases=1 Bus1=bus_670003.4 R=15 X=0

New Reactor.gnd_uc__b1_0039059839 Phases=1 Bus1=bus_671001.4 R=15 X=0
New Reactor.gnd_uc__b1_0036379310 Phases=1 Bus1=bus_671002.4 R=15 X=0 
New Reactor.gnd_uc__b1_0037526677 Phases=1 Bus1=bus_671003.4 R=15 X=0 

New Reactor.gnd_uc__b1_0035374551 Phases=1 Bus1=bus_692001.4 R=15 X=0
New Reactor.gnd_uc__b1_0036873772 Phases=1 Bus1=bus_692002.4 R=15 X=0 
New Reactor.gnd_uc__b1_0036703907 Phases=1 Bus1=bus_692003.4 R=15 X=0

New Reactor.gnd_uc__b1_0037667661 Phases=1 Bus1=bus_680001.4 R=15 X=0 
New Reactor.gnd_uc__b1_0035408618 Phases=1 Bus1=bus_680002.4 R=15 X=0 
New Reactor.gnd_uc__b1_0042022983 Phases=1 Bus1=bus_680003.4 R=15 X=0

New Reactor.gnd_uc__b1_0035376414 Phases=1 Bus1=bus_684001.4 R=15 X=0
New Reactor.gnd_uc__b1_0040626849 Phases=1 Bus1=bus_684002.4 R=15 X=0
New Reactor.gnd_uc__b1_0035473258 Phases=1 Bus1=bus_684003.4 R=15 X=0

New Reactor.gnd_uc__b1_0036347272 Phases=1 Bus1=bus_611001.4 R=15 X=0
New Reactor.gnd_uc__b1_0035368799 Phases=1 Bus1=bus_611002.4 R=15 X=0 
New Reactor.gnd_uc__b1_0035436662 Phases=1 Bus1=bus_611003.4 R=15 X=0

New Reactor.gnd_uc__b3_0041687892 Phases=1 Bus1=bus_652001.4 R=15 X=0
New Reactor.gnd_uc__b1_0041184335 Phases=1 Bus1=bus_652002.4 R=15 X=0 
New Reactor.gnd_uc__b1_0036046086 Phases=1 Bus1=bus_652003.4 R=15 X=0

New Reactor.gnd_uc__b1_0035374144 Phases=1 Bus1=bus_675001.4 R=15 X=0 
New Reactor.gnd_uc__b1_0035401931 Phases=1 Bus1=bus_675002.4 R=15 X=0 
New Reactor.gnd_uc__b1_0035575433 Phases=1 Bus1=bus_675003.4 R=15 X=0  

MakeBusList
Set VoltageBases=[0.127, 0.22, 6.5818, 11.4]
CalcVoltageBases

solve mode=snapshot
